432
Lattice="20.77107273 0.0 1.2e-15 3.3e-15 20.77107273 1.2e-15 0.0 0.0 21.23142393" Properties=species:S:1:pos:R:3 pbc="T T T"
Na       0.00000000       3.46184546       2.97010077
Na       3.46184546       0.00000000       4.10704054
Na       3.46184546       0.00000000       0.56846989
Na       0.00000000       3.46184546       6.50867142
Na       0.00000000       0.00000000       0.00000000
Na       3.46184546       3.46184546       3.53857066
P        0.00000000       0.00000000       3.53857066
P        3.46184546       3.46184546       0.00000000
S        2.14503193       2.41270896       1.17395903
S        2.41270896       4.77865898       5.90318228
S        4.51098195       2.14503193       5.90318228
S        5.60687739       1.04913650       2.36461162
S        1.31681352       5.87455441       2.36461162
S        4.77865898       4.51098195       1.17395903
S        1.04913650       1.31681352       4.71252969
S        5.87455441       5.60687739       4.71252969
Na       0.00000000       3.46184546      10.04724208
Na       3.46184546       0.00000000      11.18418185
Na       3.46184546       0.00000000       7.64561120
Na       0.00000000       3.46184546      13.58581273
Na       0.00000000       0.00000000       7.07714131
Na       3.46184546       3.46184546      10.61571197
P        0.00000000       0.00000000      10.61571196
P        3.46184546       3.46184546       7.07714131
S        2.14503193       2.41270896       8.25110034
S        2.41270896       4.77865898      12.98032359
S        4.51098195       2.14503193      12.98032359
S        5.60687739       1.04913650       9.44175293
S        1.31681352       5.87455441       9.44175293
S        4.77865898       4.51098195       8.25110034
S        1.04913650       1.31681352      11.78967100
S        5.87455441       5.60687739      11.78967100
Na       0.00000000       3.46184546      17.12438339
Na       3.46184546       0.00000000      18.26132316
Na       3.46184546       0.00000000      14.72275251
Na       0.00000000       3.46184546      20.66295404
Na       0.00000000       0.00000000      14.15428262
Na       3.46184546       3.46184546      17.69285328
P        0.00000000       0.00000000      17.69285328
P        3.46184546       3.46184546      14.15428262
S        2.14503193       2.41270896      15.32824165
S        2.41270896       4.77865898      20.05746490
S        4.51098195       2.14503193      20.05746490
S        5.60687739       1.04913650      16.51889424
S        1.31681352       5.87455441      16.51889424
S        4.77865898       4.51098195      15.32824165
S        1.04913650       1.31681352      18.86681231
S        5.87455441       5.60687739      18.86681231
Na       0.00000000      10.38553637       2.97010077
Na       3.46184546       6.92369091       4.10704054
Na       3.46184546       6.92369091       0.56846989
Na       0.00000000      10.38553637       6.50867142
Na       0.00000000       6.92369091       0.00000000
Na       3.46184546      10.38553637       3.53857066
P        0.00000000       6.92369091       3.53857066
P        3.46184546      10.38553637       0.00000000
S        2.14503193       9.33639987       1.17395903
S        2.41270896      11.70234989       5.90318228
S        4.51098195       9.06872284       5.90318228
S        5.60687739       7.97282741       2.36461162
S        1.31681352      12.79824532       2.36461162
S        4.77865898      11.43467286       1.17395903
S        1.04913650       8.24050443       4.71252969
S        5.87455441      12.53056830       4.71252969
Na       0.00000000      10.38553637      10.04724208
Na       3.46184546       6.92369091      11.18418185
Na       3.46184546       6.92369091       7.64561120
Na       0.00000000      10.38553637      13.58581273
Na       0.00000000       6.92369091       7.07714131
Na       3.46184546      10.38553637      10.61571197
P        0.00000000       6.92369091      10.61571196
P        3.46184546      10.38553637       7.07714131
S        2.14503193       9.33639987       8.25110034
S        2.41270896      11.70234989      12.98032359
S        4.51098195       9.06872284      12.98032359
S        5.60687739       7.97282741       9.44175293
S        1.31681352      12.79824532       9.44175293
S        4.77865898      11.43467286       8.25110034
S        1.04913650       8.24050443      11.78967100
S        5.87455441      12.53056830      11.78967100
Na       0.00000000      10.38553637      17.12438339
Na       3.46184546       6.92369091      18.26132316
Na       3.46184546       6.92369091      14.72275251
Na       0.00000000      10.38553637      20.66295404
Na       0.00000000       6.92369091      14.15428262
Na       3.46184546      10.38553637      17.69285328
P        0.00000000       6.92369091      17.69285328
P        3.46184546      10.38553637      14.15428262
S        2.14503193       9.33639987      15.32824165
S        2.41270896      11.70234989      20.05746490
S        4.51098195       9.06872284      20.05746490
S        5.60687739       7.97282741      16.51889424
S        1.31681352      12.79824532      16.51889424
S        4.77865898      11.43467286      15.32824165
S        1.04913650       8.24050443      18.86681231
S        5.87455441      12.53056830      18.86681231
Na       0.00000000      17.30922728       2.97010077
Na       3.46184546      13.84738182       4.10704054
Na       3.46184546      13.84738182       0.56846989
Na       0.00000000      17.30922728       6.50867142
Na       0.00000000      13.84738182       0.00000000
Na       3.46184546      17.30922728       3.53857066
P        0.00000000      13.84738182       3.53857066
P        3.46184546      17.30922728       0.00000000
S        2.14503193      16.26009078       1.17395903
S        2.41270896      18.62604080       5.90318228
S        4.51098195      15.99241375       5.90318228
S        5.60687739      14.89651832       2.36461162
S        1.31681352      19.72193623       2.36461162
S        4.77865898      18.35836377       1.17395903
S        1.04913650      15.16419534       4.71252969
S        5.87455441      19.45425921       4.71252969
Na       0.00000000      17.30922728      10.04724208
Na       3.46184546      13.84738182      11.18418185
Na       3.46184546      13.84738182       7.64561120
Na       0.00000000      17.30922728      13.58581273
Na       0.00000000      13.84738182       7.07714131
Na       3.46184546      17.30922728      10.61571197
P        0.00000000      13.84738182      10.61571197
P        3.46184546      17.30922728       7.07714131
S        2.14503193      16.26009078       8.25110034
S        2.41270896      18.62604080      12.98032359
S        4.51098195      15.99241375      12.98032359
S        5.60687739      14.89651832       9.44175293
S        1.31681352      19.72193623       9.44175293
S        4.77865898      18.35836377       8.25110034
S        1.04913650      15.16419534      11.78967100
S        5.87455441      19.45425921      11.78967100
Na       0.00000000      17.30922728      17.12438339
Na       3.46184546      13.84738182      18.26132316
Na       3.46184546      13.84738182      14.72275251
Na       0.00000000      17.30922728      20.66295404
Na       0.00000000      13.84738182      14.15428262
Na       3.46184546      17.30922728      17.69285328
P        0.00000000      13.84738182      17.69285328
P        3.46184546      17.30922728      14.15428262
S        2.14503193      16.26009078      15.32824165
S        2.41270896      18.62604080      20.05746490
S        4.51098195      15.99241375      20.05746490
S        5.60687739      14.89651832      16.51889424
S        1.31681352      19.72193623      16.51889424
S        4.77865898      18.35836377      15.32824165
S        1.04913650      15.16419534      18.86681231
S        5.87455441      19.45425921      18.86681231
Na       6.92369091       3.46184546       2.97010077
Na      10.38553637       0.00000000       4.10704054
Na      10.38553637       0.00000000       0.56846989
Na       6.92369091       3.46184546       6.50867142
Na       6.92369091       0.00000000       0.00000000
Na      10.38553637       3.46184546       3.53857066
P        6.92369091       0.00000000       3.53857066
P       10.38553637       3.46184546       0.00000000
S        9.06872284       2.41270896       1.17395903
S        9.33639987       4.77865898       5.90318228
S       11.43467286       2.14503193       5.90318228
S       12.53056830       1.04913650       2.36461162
S        8.24050443       5.87455441       2.36461162
S       11.70234989       4.51098195       1.17395903
S        7.97282741       1.31681352       4.71252969
S       12.79824532       5.60687739       4.71252969
Na       6.92369091       3.46184546      10.04724208
Na      10.38553637       0.00000000      11.18418185
Na      10.38553637       0.00000000       7.64561120
Na       6.92369091       3.46184546      13.58581273
Na       6.92369091       0.00000000       7.07714131
Na      10.38553637       3.46184546      10.61571197
P        6.92369091       0.00000000      10.61571196
P       10.38553637       3.46184546       7.07714131
S        9.06872284       2.41270896       8.25110034
S        9.33639987       4.77865898      12.98032359
S       11.43467286       2.14503193      12.98032359
S       12.53056830       1.04913650       9.44175293
S        8.24050443       5.87455441       9.44175293
S       11.70234989       4.51098195       8.25110034
S        7.97282741       1.31681352      11.78967100
S       12.79824532       5.60687739      11.78967100
Na       6.92369091       3.46184546      17.12438339
Na      10.38553637       0.00000000      18.26132316
Na      10.38553637       0.00000000      14.72275251
Na       6.92369091       3.46184546      20.66295404
Na       6.92369091       0.00000000      14.15428262
Na      10.38553637       3.46184546      17.69285328
P        6.92369091       0.00000000      17.69285328
P       10.38553637       3.46184546      14.15428262
S        9.06872284       2.41270896      15.32824165
S        9.33639987       4.77865898      20.05746490
S       11.43467286       2.14503193      20.05746490
S       12.53056830       1.04913650      16.51889424
S        8.24050443       5.87455441      16.51889424
S       11.70234989       4.51098195      15.32824165
S        7.97282741       1.31681352      18.86681231
S       12.79824532       5.60687739      18.86681231
Na       6.92369091      10.38553637       2.97010077
Na      10.38553637       6.92369091       4.10704054
Na      10.38553637       6.92369091       0.56846989
Na       6.92369091      10.38553637       6.50867142
Na       6.92369091       6.92369091       0.00000000
Na      10.38553637      10.38553637       3.53857066
P        6.92369091       6.92369091       3.53857066
P       10.38553637      10.38553637       0.00000000
S        9.06872284       9.33639987       1.17395903
S        9.33639987      11.70234989       5.90318228
S       11.43467286       9.06872284       5.90318228
S       12.53056830       7.97282741       2.36461162
S        8.24050443      12.79824532       2.36461162
S       11.70234989      11.43467286       1.17395903
S        7.97282741       8.24050443       4.71252969
S       12.79824532      12.53056830       4.71252969
Na       6.92369091      10.38553637      10.04724208
Na      10.38553637       6.92369091      11.18418185
Na      10.38553637       6.92369091       7.64561120
Na       6.92369091      10.38553637      13.58581273
Na       6.92369091       6.92369091       7.07714131
Na      10.38553637      10.38553637      10.61571197
P        6.92369091       6.92369091      10.61571197
P       10.38553637      10.38553637       7.07714131
S        9.06872284       9.33639987       8.25110034
S        9.33639987      11.70234989      12.98032359
S       11.43467286       9.06872284      12.98032359
S       12.53056830       7.97282741       9.44175293
S        8.24050443      12.79824532       9.44175293
S       11.70234989      11.43467286       8.25110034
S        7.97282741       8.24050443      11.78967100
S       12.79824532      12.53056830      11.78967100
Na       6.92369091      10.38553637      17.12438339
Na      10.38553637       6.92369091      18.26132316
Na      10.38553637       6.92369091      14.72275251
Na       6.92369091      10.38553637      20.66295404
Na       6.92369091       6.92369091      14.15428262
Na      10.38553637      10.38553637      17.69285328
P        6.92369091       6.92369091      17.69285328
P       10.38553637      10.38553637      14.15428262
S        9.06872284       9.33639987      15.32824165
S        9.33639987      11.70234989      20.05746490
S       11.43467286       9.06872284      20.05746490
S       12.53056830       7.97282741      16.51889424
S        8.24050443      12.79824532      16.51889424
S       11.70234989      11.43467286      15.32824165
S        7.97282741       8.24050443      18.86681231
S       12.79824532      12.53056830      18.86681231
Na       6.92369091      17.30922728       2.97010077
Na      10.38553637      13.84738182       4.10704054
Na      10.38553637      13.84738182       0.56846989
Na       6.92369091      17.30922728       6.50867142
Na       6.92369091      13.84738182       0.00000000
Na      10.38553637      17.30922728       3.53857066
P        6.92369091      13.84738182       3.53857066
P       10.38553637      17.30922728       0.00000000
S        9.06872284      16.26009078       1.17395903
S        9.33639987      18.62604080       5.90318228
S       11.43467286      15.99241375       5.90318228
S       12.53056830      14.89651832       2.36461162
S        8.24050443      19.72193623       2.36461162
S       11.70234989      18.35836377       1.17395903
S        7.97282741      15.16419534       4.71252969
S       12.79824532      19.45425921       4.71252969
Na       6.92369091      17.30922728      10.04724208
Na      10.38553637      13.84738182      11.18418185
Na      10.38553637      13.84738182       7.64561120
Na       6.92369091      17.30922728      13.58581273
Na       6.92369091      13.84738182       7.07714131
Na      10.38553637      17.30922728      10.61571197
P        6.92369091      13.84738182      10.61571197
P       10.38553637      17.30922728       7.07714131
S        9.06872284      16.26009078       8.25110034
S        9.33639987      18.62604080      12.98032359
S       11.43467286      15.99241375      12.98032359
S       12.53056830      14.89651832       9.44175293
S        8.24050443      19.72193623       9.44175293
S       11.70234989      18.35836377       8.25110034
S        7.97282741      15.16419534      11.78967100
S       12.79824532      19.45425921      11.78967100
Na       6.92369091      17.30922728      17.12438339
Na      10.38553637      13.84738182      18.26132316
Na      10.38553637      13.84738182      14.72275251
Na       6.92369091      17.30922728      20.66295404
Na       6.92369091      13.84738182      14.15428262
Na      10.38553637      17.30922728      17.69285328
P        6.92369091      13.84738182      17.69285328
P       10.38553637      17.30922728      14.15428262
S        9.06872284      16.26009078      15.32824165
S        9.33639987      18.62604080      20.05746490
S       11.43467286      15.99241375      20.05746490
S       12.53056830      14.89651832      16.51889424
S        8.24050443      19.72193623      16.51889424
S       11.70234989      18.35836377      15.32824165
S        7.97282741      15.16419534      18.86681231
S       12.79824532      19.45425921      18.86681231
Na      13.84738182       3.46184546       2.97010077
Na      17.30922728       0.00000000       4.10704054
Na      17.30922728       0.00000000       0.56846989
Na      13.84738182       3.46184546       6.50867142
Na      13.84738182       0.00000000       0.00000000
Na      17.30922728       3.46184546       3.53857066
P       13.84738182       0.00000000       3.53857066
P       17.30922728       3.46184546       0.00000000
S       15.99241375       2.41270896       1.17395903
S       16.26009078       4.77865898       5.90318228
S       18.35836377       2.14503193       5.90318228
S       19.45425921       1.04913650       2.36461162
S       15.16419534       5.87455441       2.36461162
S       18.62604080       4.51098195       1.17395903
S       14.89651832       1.31681352       4.71252969
S       19.72193623       5.60687739       4.71252969
Na      13.84738182       3.46184546      10.04724208
Na      17.30922728       0.00000000      11.18418185
Na      17.30922728       0.00000000       7.64561120
Na      13.84738182       3.46184546      13.58581273
Na      13.84738182       0.00000000       7.07714131
Na      17.30922728       3.46184546      10.61571197
P       13.84738182       0.00000000      10.61571197
P       17.30922728       3.46184546       7.07714131
S       15.99241375       2.41270896       8.25110034
S       16.26009078       4.77865898      12.98032359
S       18.35836377       2.14503193      12.98032359
S       19.45425921       1.04913650       9.44175293
S       15.16419534       5.87455441       9.44175293
S       18.62604080       4.51098195       8.25110034
S       14.89651832       1.31681352      11.78967100
S       19.72193623       5.60687739      11.78967100
Na      13.84738182       3.46184546      17.12438339
Na      17.30922728       0.00000000      18.26132316
Na      17.30922728       0.00000000      14.72275251
Na      13.84738182       3.46184546      20.66295404
Na      13.84738182       0.00000000      14.15428262
Na      17.30922728       3.46184546      17.69285328
P       13.84738182       0.00000000      17.69285328
P       17.30922728       3.46184546      14.15428262
S       15.99241375       2.41270896      15.32824165
S       16.26009078       4.77865898      20.05746490
S       18.35836377       2.14503193      20.05746490
S       19.45425921       1.04913650      16.51889424
S       15.16419534       5.87455441      16.51889424
S       18.62604080       4.51098195      15.32824165
S       14.89651832       1.31681352      18.86681231
S       19.72193623       5.60687739      18.86681231
Na      13.84738182      10.38553637       2.97010077
Na      17.30922728       6.92369091       4.10704054
Na      17.30922728       6.92369091       0.56846989
Na      13.84738182      10.38553637       6.50867142
Na      13.84738182       6.92369091       0.00000000
Na      17.30922728      10.38553637       3.53857066
P       13.84738182       6.92369091       3.53857066
P       17.30922728      10.38553637       0.00000000
S       15.99241375       9.33639987       1.17395903
S       16.26009078      11.70234989       5.90318228
S       18.35836377       9.06872284       5.90318228
S       19.45425921       7.97282741       2.36461162
S       15.16419534      12.79824532       2.36461162
S       18.62604080      11.43467286       1.17395903
S       14.89651832       8.24050443       4.71252969
S       19.72193623      12.53056830       4.71252969
Na      13.84738182      10.38553637      10.04724208
Na      17.30922728       6.92369091      11.18418185
Na      17.30922728       6.92369091       7.64561120
Na      13.84738182      10.38553637      13.58581273
Na      13.84738182       6.92369091       7.07714131
Na      17.30922728      10.38553637      10.61571197
P       13.84738182       6.92369091      10.61571197
P       17.30922728      10.38553637       7.07714131
S       15.99241375       9.33639987       8.25110034
S       16.26009078      11.70234989      12.98032359
S       18.35836377       9.06872284      12.98032359
S       19.45425921       7.97282741       9.44175293
S       15.16419534      12.79824532       9.44175293
S       18.62604080      11.43467286       8.25110034
S       14.89651832       8.24050443      11.78967100
S       19.72193623      12.53056830      11.78967100
Na      13.84738182      10.38553637      17.12438339
Na      17.30922728       6.92369091      18.26132316
Na      17.30922728       6.92369091      14.72275251
Na      13.84738182      10.38553637      20.66295404
Na      13.84738182       6.92369091      14.15428262
Na      17.30922728      10.38553637      17.69285328
P       13.84738182       6.92369091      17.69285328
P       17.30922728      10.38553637      14.15428262
S       15.99241375       9.33639987      15.32824165
S       16.26009078      11.70234989      20.05746490
S       18.35836377       9.06872284      20.05746490
S       19.45425921       7.97282741      16.51889424
S       15.16419534      12.79824532      16.51889424
S       18.62604080      11.43467286      15.32824165
S       14.89651832       8.24050443      18.86681231
S       19.72193623      12.53056830      18.86681231
Na      13.84738182      17.30922728       2.97010077
Na      17.30922728      13.84738182       4.10704054
Na      17.30922728      13.84738182       0.56846989
Na      13.84738182      17.30922728       6.50867142
Na      13.84738182      13.84738182       0.00000000
Na      17.30922728      17.30922728       3.53857066
P       13.84738182      13.84738182       3.53857066
P       17.30922728      17.30922728       0.00000000
S       15.99241375      16.26009078       1.17395903
S       16.26009078      18.62604080       5.90318228
S       18.35836377      15.99241375       5.90318228
S       19.45425921      14.89651832       2.36461162
S       15.16419534      19.72193623       2.36461162
S       18.62604080      18.35836377       1.17395903
S       14.89651832      15.16419534       4.71252969
S       19.72193623      19.45425921       4.71252969
Na      13.84738182      17.30922728      10.04724208
Na      17.30922728      13.84738182      11.18418185
Na      17.30922728      13.84738182       7.64561120
Na      13.84738182      17.30922728      13.58581273
Na      13.84738182      13.84738182       7.07714131
Na      17.30922728      17.30922728      10.61571197
P       13.84738182      13.84738182      10.61571197
P       17.30922728      17.30922728       7.07714131
S       15.99241375      16.26009078       8.25110034
S       16.26009078      18.62604080      12.98032359
S       18.35836377      15.99241375      12.98032359
S       19.45425921      14.89651832       9.44175293
S       15.16419534      19.72193623       9.44175293
S       18.62604080      18.35836377       8.25110034
S       14.89651832      15.16419534      11.78967100
S       19.72193623      19.45425921      11.78967100
Na      13.84738182      17.30922728      17.12438339
Na      17.30922728      13.84738182      18.26132316
Na      17.30922728      13.84738182      14.72275251
Na      13.84738182      17.30922728      20.66295404
Na      13.84738182      13.84738182      14.15428262
Na      17.30922728      17.30922728      17.69285328
P       13.84738182      13.84738182      17.69285328
P       17.30922728      17.30922728      14.15428262
S       15.99241375      16.26009078      15.32824165
S       16.26009078      18.62604080      20.05746490
S       18.35836377      15.99241375      20.05746490
S       19.45425921      14.89651832      16.51889424
S       15.16419534      19.72193623      16.51889424
S       18.62604080      18.35836377      15.32824165
S       14.89651832      15.16419534      18.86681231
S       19.72193623      19.45425921      18.86681231
